4
Coordinates from ORCA-job NH3_TDDFT-HFS E -48.773495139871
  N       0.000000      0.000000      0.113615
  H       0.000000      0.937991     -0.265101
  H      -0.812324     -0.468996     -0.265101
  H       0.812324     -0.468996     -0.265101
4
Coordinates from ORCA-job NH3_TDDFT-HFS E -48.861186173537
  N       0.000000     -0.002242      0.127672
  H      -0.000000      1.025636     -0.270390
  H      -0.893147     -0.511697     -0.269485
  H       0.893147     -0.511697     -0.269485
4
Coordinates from ORCA-job NH3_TDDFT-HFS E -48.912896059167
  N       0.000000     -0.006795      0.122187
  H       0.000000      1.115479     -0.269802
  H      -0.980470     -0.554343     -0.267037
  H       0.980470     -0.554343     -0.267037
4
Coordinates from ORCA-job NH3_TDDFT-HFS E -48.955678594507
  N       0.000000     -0.014188      0.066967
  H       0.000000      1.246388     -0.253635
  H      -1.108491     -0.616101     -0.247510
  H       1.108491     -0.616101     -0.247510
4
Coordinates from ORCA-job NH3_TDDFT-HFS E -48.983224357636
  N       0.000000     -0.020204     -0.035948
  H       0.000000      1.368732     -0.221793
  H      -1.225902     -0.674264     -0.211973
  H       1.225902     -0.674264     -0.211973
4
Coordinates from ORCA-job NH3_TDDFT-HFS E -49.007385265649
  N       0.000000     -0.021116     -0.149511
  H      -0.000000      1.482625     -0.186062
  H      -1.327134     -0.730755     -0.173057
  H       1.327134     -0.730755     -0.173057
4
Coordinates from ORCA-job NH3_TDDFT-HFS E -48.978503738506
  N       0.000000     -0.012402     -0.269670
  H      -0.000000      1.615755     -0.148227
  H      -1.429209     -0.801677     -0.131895
  H       1.429209     -0.801677     -0.131895
4
Coordinates from ORCA-job NH3_TDDFT-HFS E -48.999984284548
  N       0.000000     -0.019173     -0.216664
  H      -0.000000      1.527399     -0.164550
  H      -1.363563     -0.754114     -0.150237
  H       1.363563     -0.754114     -0.150237
4
Coordinates from ORCA-job NH3_TDDFT-HFS E -49.005532681807
  N       0.000000     -0.025515     -0.158078
  H      -0.000000      1.442136     -0.182703
  H      -1.300278     -0.708311     -0.170453
  H       1.300278     -0.708311     -0.170453
4
Coordinates from ORCA-job NH3_TDDFT-HFS E -49.007939562627
  N       0.000000     -0.023624     -0.148844
  H      -0.000000      1.503376     -0.185973
  H      -1.355053     -0.739877     -0.173435
  H       1.355053     -0.739877     -0.173435
4
Coordinates from ORCA-job NH3_TDDFT-HFS E -49.009743390016
  N       0.000000     -0.020452     -0.184350
  H      -0.000000      1.534492     -0.174775
  H      -1.378773     -0.757020     -0.161281
  H       1.378773     -0.757020     -0.161281
4
Coordinates from ORCA-job NH3_TDDFT-HFS E -49.011854373373
  N       0.000000     -0.021787     -0.162558
  H      -0.000000      1.522584     -0.181696
  H      -1.371081     -0.750399     -0.168717
  H       1.371081     -0.750399     -0.168717
4
Coordinates from ORCA-job NH3_TDDFT-HFS E -49.014083606159
  N       0.000000     -0.020127     -0.169181
  H      -0.000000      1.542976     -0.179685
  H      -1.388000     -0.761425     -0.166411
  H       1.388000     -0.761425     -0.166411
4
Coordinates from ORCA-job NH3_TDDFT-HFS E -49.009152260429
  N       0.000000     -0.017654     -0.176923
  H      -0.000000      1.572686     -0.177369
  H      -1.413266     -0.777517     -0.163698
  H       1.413266     -0.777517     -0.163698
4
Coordinates from ORCA-job NH3_TDDFT-HFS E -49.014416423012
  N       0.000000     -0.018343     -0.168364
  H      -0.000000      1.557478     -0.180044
  H      -1.399263     -0.769568     -0.166640
  H       1.399263     -0.769568     -0.166640
4
Coordinates from ORCA-job NH3_TDDFT-HFS E -49.013450411088
  N       0.000000     -0.016864     -0.174328
  H       0.000000      1.544683     -0.178046
  H      -1.386537     -0.763910     -0.164657
  H       1.386537     -0.763910     -0.164657
4
Coordinates from ORCA-job NH3_TDDFT-HFS E -49.014690365560
  N       0.000000     -0.016423     -0.171515
  H      -0.000000      1.557066     -0.179030
  H      -1.397048     -0.770322     -0.165571
  H       1.397048     -0.770322     -0.165571
4
Coordinates from ORCA-job NH3_TDDFT-HFS E -49.013940681811
  N       0.000000     -0.015775     -0.168720
  H      -0.000000      1.572072     -0.180024
  H      -1.409699     -0.778149     -0.166472
  H       1.409699     -0.778149     -0.166472
4
Coordinates from ORCA-job NH3_TDDFT-HFS E -49.015017940032
  N       0.000000     -0.015034     -0.171064
  H      -0.000000      1.562843     -0.179211
  H      -1.400490     -0.773905     -0.165706
  H       1.400490     -0.773905     -0.165706
4
Coordinates from ORCA-job NH3_TDDFT-HFS E -49.015279908103
  N       0.000000     -0.014079     -0.170651
  H      -0.000000      1.566854     -0.179370
  H      -1.402805     -0.776388     -0.165833
  H       1.402805     -0.776388     -0.165833
4
Coordinates from ORCA-job NH3_TDDFT-HFS E -49.000804368384
  N       0.000000     -0.004647     -0.166302
  H      -0.000000      1.616460     -0.181091
  H      -1.435088     -0.805907     -0.167147
  H       1.435088     -0.805907     -0.167147
4
Coordinates from ORCA-job NH3_TDDFT-HFS E -49.012984048047
  N       0.000000     -0.008480     -0.169365
  H      -0.000001      1.584773     -0.179897
  H      -1.411151     -0.788147     -0.166213
  H       1.411152     -0.788147     -0.166213
4
Coordinates from ORCA-job NH3_TDDFT-HFS E -49.013805840492
  N      -0.000000     -0.011374     -0.173649
  H       0.000001      1.554119     -0.178309
  H      -1.386096     -0.771373     -0.164865
  H       1.386096     -0.771372     -0.164865
4
Coordinates from ORCA-job NH3_TDDFT-HFS E -49.014147178515
  N      -0.000000     -0.010614     -0.172906
  H       0.000001      1.558418     -0.178579
  H      -1.388868     -0.773903     -0.165102
  H       1.388868     -0.773902     -0.165102
4
Coordinates from ORCA-job NH3_TDDFT-HFS E -49.014530855831
  N      -0.000000     -0.009888     -0.172114
  H       0.000000      1.562798     -0.178866
  H      -1.391694     -0.776456     -0.165354
  H       1.391693     -0.776455     -0.165354
4
Coordinates from ORCA-job NH3_TDDFT-HFS E -49.014962538477
  N      -0.000000     -0.009108     -0.171284
  H       0.000000      1.567567     -0.179168
  H      -1.394737     -0.779230     -0.165618
  H       1.394737     -0.779230     -0.165618
4
Coordinates from ORCA-job NH3_TDDFT-HFS E -49.015384718506
  N       0.000000     -0.008157     -0.170470
  H       0.000000      1.573141     -0.179469
  H      -1.398203     -0.782492     -0.165874
  H       1.398203     -0.782492     -0.165874
4
Coordinates from ORCA-job NH3_TDDFT-HFS E -49.007099003272
  N       0.000000     -0.002051     -0.167613
  H      -0.000001      1.604015     -0.180599
  H      -1.415882     -0.800982     -0.166738
  H       1.415883     -0.800984     -0.166738
4
Coordinates from ORCA-job NH3_TDDFT-HFS E -49.015496953281
  N       0.000000     -0.006758     -0.170097
  H      -0.000000      1.578465     -0.179625
  H      -1.400545     -0.785854     -0.165983
  H       1.400545     -0.785854     -0.165983
4
Coordinates from ORCA-job NH3_TDDFT-HFS E -49.015214977494
  N       0.000000     -0.006471     -0.171049
  H      -0.000000      1.576949     -0.179303
  H      -1.398474     -0.785239     -0.165668
  H       1.398474     -0.785239     -0.165668
4
Coordinates from ORCA-job NH3_TDDFT-HFS E -49.015592636935
  N       0.000000     -0.006131     -0.170488
  H      -0.000000      1.579448     -0.179503
  H      -1.399951     -0.786659     -0.165849
  H       1.399951     -0.786659     -0.165849
4
Coordinates from ORCA-job NH3_TDDFT-HFS E -49.011636748485
  N       0.000000     -0.003525     -0.168888
  H      -0.000000      1.593240     -0.180115
  H      -1.407193     -0.794858     -0.166342
  H       1.407194     -0.794859     -0.166342
4
Coordinates from ORCA-job NH3_TDDFT-HFS E -49.015615270092
  N       0.000000     -0.005475     -0.170209
  H      -0.000000      1.582187     -0.179612
  H      -1.400816     -0.788356     -0.165934
  H       1.400816     -0.788356     -0.165934
4
Coordinates from ORCA-job NH3_TDDFT-HFS E -49.015223765499
  N       0.000000     -0.005515     -0.170999
  H      -0.000000      1.580171     -0.179339
  H      -1.398816     -0.787328     -0.165675
  H       1.398816     -0.787328     -0.165675
4
Coordinates from ORCA-job NH3_TDDFT-HFS E -49.015597919253
  N       0.000000     -0.005293     -0.170571
  H      -0.000000      1.581802     -0.179490
  H      -1.399602     -0.788255     -0.165813
  H       1.399602     -0.788255     -0.165813
4
Coordinates from ORCA-job NH3_TDDFT-HFS E -49.009419371435
  N       0.000000     -0.002414     -0.167574
  H      -0.000000      1.598634     -0.180583
  H      -1.407506     -0.798110     -0.166765
  H       1.407506     -0.798111     -0.166765
4
Coordinates from ORCA-job NH3_TDDFT-HFS E -49.014623961351
  N       0.000000     -0.004580     -0.169712
  H      -0.000000      1.586244     -0.179801
  H      -1.401445     -0.790832     -0.166087
  H       1.401445     -0.790833     -0.166087
4
Coordinates from ORCA-job NH3_TDDFT-HFS E -49.014475084789
  N       0.000000     -0.005933     -0.172137
  H       0.000000      1.574710     -0.178931
  H      -1.394313     -0.784389     -0.165310
  H       1.394313     -0.784389     -0.165310
4
Coordinates from ORCA-job NH3_TDDFT-HFS E -49.014839841796
  N       0.000000     -0.005726     -0.171581
  H      -0.000000      1.576956     -0.179128
  H      -1.395351     -0.785615     -0.165490
  H       1.395351     -0.785615     -0.165490
4
Coordinates from ORCA-job NH3_TDDFT-HFS E -49.015285617443
  N       0.000000     -0.005364     -0.170962
  H      -0.000000      1.579679     -0.179349
  H      -1.396537     -0.787158     -0.165689
  H       1.396537     -0.787158     -0.165689
4
Coordinates from ORCA-job NH3_TDDFT-HFS E -49.015629795186
  N       0.000000     -0.004824     -0.170297
  H      -0.000000      1.583001     -0.179589
  H      -1.397940     -0.789089     -0.165901
  H       1.397940     -0.789089     -0.165901
4
Coordinates from ORCA-job NH3_TDDFT-HFS E -49.015652871572
  N       0.000000     -0.004625     -0.170377
  H      -0.000000      1.583511     -0.179565
  H      -1.397736     -0.789443     -0.165873
  H       1.397737     -0.789443     -0.165873
4
Coordinates from ORCA-job NH3_TDDFT-HFS E -49.015733435149
  N       0.000000     -0.003126     -0.170488
  H      -0.000000      1.588616     -0.179561
  H      -1.397482     -0.792745     -0.165819
  H       1.397482     -0.792746     -0.165819
4
Coordinates from ORCA-job NH3_TDDFT-HFS E -49.015901381523
  N       0.000000     -0.001326     -0.170394
  H      -0.000000      1.595320     -0.179635
  H      -1.397537     -0.796997     -0.165830
  H       1.397537     -0.796997     -0.165830
4
Coordinates from ORCA-job NH3_TDDFT-HFS E -49.005875790359
  N       0.000000      0.008881     -0.169791
  H      -0.000000      1.639898     -0.180112
  H      -1.401875     -0.824390     -0.165893
  H       1.401875     -0.824390     -0.165893
4
Coordinates from ORCA-job NH3_TDDFT-HFS E -49.014407252015
  N       0.000000     -0.004045     -0.170323
  H      -0.000000      1.595356     -0.179655
  H      -1.404192     -0.795656     -0.165855
  H       1.404192     -0.795656     -0.165855
4
Coordinates from ORCA-job NH3_TDDFT-HFS E -49.014559104092
  N       0.000000     -0.004919     -0.171026
  H      -0.000000      1.562369     -0.179230
  H      -1.380215     -0.778726     -0.165716
  H       1.380215     -0.778726     -0.165716
4
Coordinates from ORCA-job NH3_TDDFT-HFS E -49.014849613383
  N       0.000000     -0.003818     -0.170907
  H      -0.000000      1.569729     -0.179314
  H      -1.382895     -0.782956     -0.165734
  H       1.382895     -0.782956     -0.165734
4
Coordinates from ORCA-job NH3_TDDFT-HFS E -49.016279565914
  N      -0.000000     -0.000454     -0.170206
  H      -0.000000      1.606773     -0.179767
  H      -1.401870     -0.803160     -0.165857
  H       1.401871     -0.803160     -0.165857
4
Coordinates from ORCA-job NH3_TDDFT-HFS E -49.017426528868
  N      -0.000000      0.001176     -0.169456
  H      -0.000000      1.641684     -0.180222
  H      -1.423719     -0.821430     -0.166005
  H       1.423719     -0.821431     -0.166005
