4
Coordinates from ORCA-job NH3_TDDFT-HFS E -49.017426528868
  N          -0.00000001402228      0.00117580430855     -0.16945630136844
  H          -0.00000013913947      1.64168401695224     -0.18022160078756
  H          -1.42371864788048     -0.82143028821841     -0.16600505008964
  H           1.42371880104223     -0.82143053304238     -0.16600504775437
