4
Coordinates from ORCA-job NH3_TDDFT-LDA E -55.865659568646
  N       0.000000      0.000000      0.113615
  H       0.000000      0.937991     -0.265101
  H      -0.812324     -0.468996     -0.265101
  H       0.812324     -0.468996     -0.265101
4
Coordinates from ORCA-job NH3_TDDFT-LDA E -55.879556596817
  N       0.000000     -0.002923      0.062957
  H      -0.000000      1.010220     -0.249002
  H      -0.879762     -0.503649     -0.247822
  H       0.879762     -0.503649     -0.247822
4
Coordinates from ORCA-job NH3_TDDFT-LDA E -55.884722921913
  N       0.000000     -0.004683     -0.008881
  H      -0.000000      1.054157     -0.225636
  H      -0.920825     -0.524737     -0.223585
  H       0.920825     -0.524737     -0.223585
4
Coordinates from ORCA-job NH3_TDDFT-LDA E -55.885991096883
  N       0.000000     -0.004222     -0.058547
  H      -0.000000      1.072268     -0.209238
  H      -0.934151     -0.534024     -0.206951
  H       0.934151     -0.534024     -0.206951
4
Coordinates from ORCA-job NH3_TDDFT-LDA E -55.886432079642
  N       0.000000     -0.003116     -0.095001
  H       0.000000      1.079560     -0.197123
  H      -0.935573     -0.538222     -0.194782
  H       0.935573     -0.538222     -0.194782
4
Coordinates from ORCA-job NH3_TDDFT-LDA E -55.886627176949
  N      -0.000000     -0.001921     -0.126734
  H       0.000000      1.082999     -0.186558
  H      -0.932297     -0.540540     -0.184198
  H       0.932297     -0.540540     -0.184198
4
Coordinates from ORCA-job NH3_TDDFT-LDA E -55.886678565912
  N      -0.000000     -0.001039     -0.150002
  H       0.000000      1.085064     -0.178810
  H      -0.928980     -0.542013     -0.176438
  H       0.928980     -0.542013     -0.176438
4
Coordinates from ORCA-job NH3_TDDFT-LDA E -55.886682593850
  N      -0.000000     -0.000554     -0.163446
  H      -0.000000      1.086552     -0.174335
  H      -0.927604     -0.543000     -0.171954
  H       0.927604     -0.543000     -0.171954
4
Coordinates from ORCA-job NH3_TDDFT-LDA E -55.886681535011
  N      -0.000000     -0.000394     -0.168950
  H       0.000000      1.087365     -0.172503
  H      -0.927576     -0.543486     -0.170117
  H       0.927576     -0.543486     -0.170117
4
Coordinates from ORCA-job NH3_TDDFT-LDA E -55.886681404573
  N      -0.000000     -0.000411     -0.170171
  H       0.000000      1.087603     -0.172097
  H      -0.927931     -0.543597     -0.169710
  H       0.927931     -0.543597     -0.169710
4
Coordinates from ORCA-job NH3_TDDFT-LDA E -55.886680763067
  N      -0.000000     -0.000477     -0.170154
  H       0.000000      1.087555     -0.172102
  H      -0.928205     -0.543539     -0.169716
  H       0.928205     -0.543539     -0.169716
4
Coordinates from ORCA-job NH3_TDDFT-LDA E -55.886690826403
  N       0.000000     -0.000562     -0.170077
  H       0.000000      1.087391     -0.172128
  H      -0.928425     -0.543415     -0.169742
  H       0.928425     -0.543415     -0.169742
4
Coordinates from ORCA-job NH3_TDDFT-LDA E -55.886662966414
  N       0.000000     -0.000671     -0.170143
  H       0.000000      1.087129     -0.172105
  H      -0.928609     -0.543230     -0.169720
  H       0.928609     -0.543230     -0.169720
4
Coordinates from ORCA-job NH3_TDDFT-LDA E -55.886671977687
  N      -0.000000     -0.000702     -0.170326
  H      -0.000000      1.087035     -0.172044
  H      -0.928629     -0.543167     -0.169659
  H       0.928629     -0.543167     -0.169659
4
Coordinates from ORCA-job NH3_TDDFT-LDA E -55.886680205315
  N       0.000000     -0.000708     -0.170397
  H      -0.000000      1.086979     -0.172020
  H      -0.928604     -0.543136     -0.169635
  H       0.928604     -0.543136     -0.169635
4
Coordinates from ORCA-job NH3_TDDFT-LDA E -55.886685852734
  N      -0.000000     -0.000701     -0.170420
  H      -0.000000      1.086987     -0.172013
  H      -0.928591     -0.543143     -0.169628
  H       0.928591     -0.543143     -0.169628
4
Coordinates from ORCA-job NH3_TDDFT-LDA E -55.886681029895
  N       0.000000     -0.000696     -0.170434
  H      -0.000000      1.086984     -0.172008
  H      -0.928582     -0.543144     -0.169623
  H       0.928582     -0.543144     -0.169623
