12
Coordinates from ORCA-job C6H6_Freq-HFS E -199.538624927196
  C          -1.63152990542140      0.94196423396310     -0.00000000000000
  C          -1.63152990586295     -0.94196423391456      0.00000000000002
  C           0.00000000006989     -1.88392844944301     -0.00000000000004
  C           1.63152990589033     -0.94196423421906      0.00000000000001
  C           1.63152990550196      0.94196423346137     -0.00000000000000
  C           0.00000000031862      1.88392844887851      0.00000000000001
  H          -2.95763185977522     -1.70758953406071     -0.00000000000002
  H           0.00000000027367     -3.41517908177056      0.00000000000004
  H           2.95763185965386     -1.70758953430391     -0.00000000000002
  H           2.95763185794764      1.70758953540395      0.00000000000000
  H           0.00000000029980      3.41517908103973     -0.00000000000000
  H          -2.95763185889620      1.70758953496514      0.00000000000000
