3
Coordinates from ORCA-job Agua_Opt_Geom-PBE0 E -76.380985603142
  O       0.000000      0.000000      0.117790
  H       0.000000      0.755450     -0.471160
  H       0.000000     -0.755450     -0.471160
3
Coordinates from ORCA-job Agua_Opt_Geom-PBE0 E -76.380991931428
  O       0.000000     -0.000000      0.116542
  H       0.000000      0.757035     -0.470536
  H       0.000000     -0.757035     -0.470536
3
Coordinates from ORCA-job Agua_Opt_Geom-PBE0 E -76.380994255402
  O       0.000000      0.000000      0.115063
  H       0.000000      0.758352     -0.469797
  H       0.000000     -0.758352     -0.469797
3
Coordinates from ORCA-job Agua_Opt_Geom-PBE0 E -76.380994263498
  O       0.000000     -0.000000      0.115052
  H       0.000000      0.758352     -0.469791
  H       0.000000     -0.758352     -0.469791
3
Coordinates from ORCA-job Agua_Opt_Geom-PBE0 E -76.380994263586
  O       0.000000     -0.000000      0.115052
  H       0.000000      0.758356     -0.469791
  H       0.000000     -0.758356     -0.469791
