12
Coordinates from ORCA-job C6H6_Freq-PBE0 E -232.047704018341
  C          -1.20178581142753      0.69388661105403      0.00000000790632
  C          -1.20178578669478     -0.69388655998892     -0.00000014375377
  C          -0.00000002590778     -1.38778390137234      0.00000004673180
  C           1.20178582514749     -0.69388658001941      0.00000006094262
  C           1.20178589487354      0.69388654222051     -0.00000006701867
  C           0.00000003582385      1.38778382171363      0.00000000223301
  H          -2.14017828353215     -1.23566521941836     -0.00000005573184
  H          -0.00000003464325     -2.47133402055176      0.00000007324282
  H           2.14017827465244     -1.23566530690174     -0.00000001071308
  H           2.14017825207334      1.23566535918887     -0.00000003119818
  H          -0.00000005607273      2.47133404859739      0.00000003063229
  H          -2.14017828429243      1.23566520547809      0.00000008672668
