12
Coordinates from ORCA-job C6H6_Opt_Geom-LDA E -230.183780149726
  C          -1.19996792065050      0.69284188655438     -0.00000000117384
  C          -1.19996791873510     -0.69284188419339      0.00000000033550
  C           0.00000000011857     -1.38569687938066      0.00000000047068
  C           1.19996791953762     -0.69284188515762     -0.00000000305221
  C           1.19996791639777      0.69284188279209     -0.00000000168329
  C          -0.00000000112579      1.38569688005486     -0.00000000224582
  H          -2.14710536419466     -1.23967440358204      0.00000000030064
  H          -0.00000000134218     -2.47934737715793      0.00000000167206
  H           2.14710537065028     -1.23967439315226      0.00000000034506
  H           2.14710536500396      1.23967439264350      0.00000000254036
  H           0.00000000270416      2.47934737672431      0.00000000207712
  H          -2.14710536836413      1.23967440385477      0.00000000041372
