4
Coordinates from ORCA-job NH3_Freq-PBE0 E -56.515920915286
  N       0.000000      0.000000      0.113615
  H       0.000000      0.937991     -0.265101
  H      -0.812324     -0.468996     -0.265101
  H       0.812324     -0.468996     -0.265101
4
Coordinates from ORCA-job NH3_Freq-PBE0 E -56.515920995433
  N      -0.000000      0.000006      0.113705
  H       0.000000      0.938145     -0.265130
  H      -0.812458     -0.469076     -0.265132
  H       0.812458     -0.469076     -0.265132
4
Coordinates from ORCA-job NH3_Freq-PBE0 E -56.515921007373
  N       0.000000      0.000008      0.113766
  H       0.000000      0.938110     -0.265149
  H      -0.812425     -0.469059     -0.265153
  H       0.812425     -0.469059     -0.265153
4
Coordinates from ORCA-job NH3_Freq-PBE0 E -56.515921012877
  N       0.000000      0.000012      0.113994
  H      -0.000000      0.938024     -0.265224
  H      -0.812340     -0.469019     -0.265229
  H       0.812340     -0.469019     -0.265229
4
Coordinates from ORCA-job NH3_Freq-PBE0 E -56.515921015294
  N      -0.000000      0.000010      0.113904
  H       0.000000      0.938057     -0.265195
  H      -0.812374     -0.469034     -0.265199
  H       0.812374     -0.469034     -0.265199
4
Coordinates from ORCA-job NH3_Freq-PBE0 E -56.515921015004
  N      -0.000000      0.000009      0.113901
  H       0.000000      0.938057     -0.265194
  H      -0.812376     -0.469034     -0.265198
  H       0.812376     -0.469034     -0.265198
