4
Coordinates from ORCA-job NH3_Freq-LDA E -56.103609595896
  N       0.000000      0.000000      0.113615
  H       0.000000      0.937991     -0.265101
  H      -0.812324     -0.468996     -0.265101
  H       0.812324     -0.468996     -0.265101
4
Coordinates from ORCA-job NH3_Freq-LDA E -56.103873057586
  N      -0.000000     -0.000014      0.113205
  H       0.000000      0.949891     -0.264968
  H      -0.822667     -0.474939     -0.264963
  H       0.822667     -0.474939     -0.264963
4
Coordinates from ORCA-job NH3_Freq-LDA E -56.103874207055
  N      -0.000000     -0.000005      0.113229
  H       0.000000      0.949180     -0.264974
  H      -0.822030     -0.474588     -0.264972
  H       0.822030     -0.474588     -0.264972
4
Coordinates from ORCA-job NH3_Freq-LDA E -56.103874208245
  N      -0.000000      0.000000      0.113222
  H      -0.000000      0.949165     -0.264970
  H      -0.822008     -0.474583     -0.264970
  H       0.822008     -0.474583     -0.264970
4
Coordinates from ORCA-job NH3_Freq-LDA E -56.103874208495
  N       0.000000      0.000004      0.113218
  H      -0.000000      0.949170     -0.264968
  H      -0.822005     -0.474587     -0.264969
  H       0.822005     -0.474587     -0.264969
