4
Coordinates from ORCA-job NH3_Freq-LDA E -56.103874208495
  N           0.00000000001533      0.00000353634968      0.11321798505890
  H          -0.00000000006821      0.94916956204548     -0.26496777072020
  H          -0.82200545481749     -0.47458704914294     -0.26496910717282
  H           0.82200545487037     -0.47458704925223     -0.26496910716589
