3
Coordinates from ORCA-job .\Agua_TDDFT-PBE0 E -76.093636072897
  O       0.000000      0.000000      0.117790
  H       0.000000      0.755450     -0.471160
  H       0.000000     -0.755450     -0.471160
3
Coordinates from ORCA-job .\Agua_TDDFT-PBE0 E -76.106518837142
  O       0.000000     -0.000000      0.146074
  H       0.000000      0.815532     -0.485302
  H       0.000000     -0.815532     -0.485302
3
Coordinates from ORCA-job .\Agua_TDDFT-PBE0 E -76.108425523473
  O       0.000000     -0.000000      0.156067
  H       0.000000      0.846246     -0.490298
  H       0.000000     -0.846246     -0.490298
3
Coordinates from ORCA-job .\Agua_TDDFT-PBE0 E -76.108767942205
  O       0.000000     -0.000000      0.158134
  H       0.000000      0.867749     -0.491332
  H       0.000000     -0.867749     -0.491332
3
Coordinates from ORCA-job .\Agua_TDDFT-PBE0 E -76.108813603630
  O       0.000000      0.000000      0.155257
  H       0.000000      0.879058     -0.489894
  H       0.000000     -0.879058     -0.489894
3
Coordinates from ORCA-job .\Agua_TDDFT-PBE0 E -76.108850142400
  O       0.000000      0.000000      0.148205
  H       0.000000      0.892518     -0.486367
  H       0.000000     -0.892518     -0.486367
3
Coordinates from ORCA-job .\Agua_TDDFT-PBE0 E -76.108879439613
  O       0.000000      0.000000      0.137039
  H       0.000000      0.906938     -0.480785
  H       0.000000     -0.906938     -0.480785
3
Coordinates from ORCA-job .\Agua_TDDFT-PBE0 E -76.108887218590
  O       0.000000      0.000000      0.129590
  H       0.000000      0.913483     -0.477060
  H       0.000000     -0.913483     -0.477060
3
Coordinates from ORCA-job .\Agua_TDDFT-PBE0 E -76.108889923188
  O       0.000000      0.000000      0.128421
  H       0.000000      0.913388     -0.476475
  H       0.000000     -0.913388     -0.476475
3
Coordinates from ORCA-job .\Agua_TDDFT-PBE0 E -76.108892133495
  O       0.000000      0.000000      0.128716
  H       0.000000      0.912478     -0.476623
  H       0.000000     -0.912478     -0.476623
3
Coordinates from ORCA-job .\Agua_TDDFT-PBE0 E -76.108863577110
  O       0.000000      0.000000      0.128953
  H       0.000000      0.912107     -0.476741
  H       0.000000     -0.912107     -0.476741
3
Coordinates from ORCA-job .\Agua_TDDFT-PBE0 E -76.108902970339
  O       0.000000      0.000000      0.128919
  H       0.000000      0.912193     -0.476724
  H       0.000000     -0.912193     -0.476724
3
Coordinates from ORCA-job .\Agua_TDDFT-PBE0 E -76.108888461020
  O       0.000000      0.000000      0.128949
  H       0.000000      0.912141     -0.476740
  H       0.000000     -0.912142     -0.476740
3
Coordinates from ORCA-job .\Agua_TDDFT-PBE0 E -76.108891833270
  O       0.000000      0.000000      0.128955
  H       0.000000      0.912130     -0.476742
  H       0.000000     -0.912130     -0.476742
3
Coordinates from ORCA-job .\Agua_TDDFT-PBE0 E -76.108891699013
  O       0.000000      0.000000      0.128962
  H       0.000000      0.912116     -0.476746
  H       0.000000     -0.912117     -0.476746
