6
Coordinates from ORCA-job C2H4_Freq-HFS E -66.767128967454
  C       0.665594      0.000000      0.000000
  C      -0.665594      0.000000      0.000000
  H       1.231671     -0.921493      0.000000
  H       1.231671      0.921493      0.000000
  H      -1.231671     -0.921493      0.000000
  H      -1.231671      0.921493      0.000000
6
Coordinates from ORCA-job C2H4_Freq-HFS E -66.894977160697
  C       0.713419      0.000000     -0.000000
  C      -0.713419     -0.000000      0.000000
  H       1.314811     -0.974107      0.000000
  H       1.314811      0.974107     -0.000000
  H      -1.314811     -0.974107     -0.000000
  H      -1.314811      0.974107      0.000000
6
Coordinates from ORCA-job C2H4_Freq-HFS E -66.978813572880
  C       0.753690      0.000000      0.000000
  C      -0.753690      0.000000      0.000000
  H       1.392121     -1.031619      0.000000
  H       1.392121      1.031619     -0.000000
  H      -1.392121     -1.031619     -0.000000
  H      -1.392121      1.031619     -0.000000
6
Coordinates from ORCA-job C2H4_Freq-HFS E -67.050689885381
  C       0.807109     -0.000000      0.000000
  C      -0.807109     -0.000000      0.000000
  H       1.501798     -1.121941     -0.000000
  H       1.501798      1.121941     -0.000000
  H      -1.501798     -1.121941     -0.000000
  H      -1.501798      1.121941     -0.000000
6
Coordinates from ORCA-job C2H4_Freq-HFS E -67.077739606006
  C       0.846539     -0.000000      0.000000
  C      -0.846539     -0.000000     -0.000000
  H       1.585993     -1.197535     -0.000000
  H       1.585993      1.197535     -0.000000
  H      -1.585993     -1.197535      0.000000
  H      -1.585993      1.197535     -0.000000
6
Coordinates from ORCA-job C2H4_Freq-HFS E -67.085906125115
  C       0.872736      0.000000      0.000000
  C      -0.872736      0.000000     -0.000000
  H       1.643908     -1.255255     -0.000000
  H       1.643908      1.255255     -0.000000
  H      -1.643908     -1.255255      0.000000
  H      -1.643908      1.255255     -0.000000
6
Coordinates from ORCA-job C2H4_Freq-HFS E -67.087301622608
  C       0.884226      0.000000      0.000000
  C      -0.884226      0.000000      0.000000
  H       1.671141     -1.287275     -0.000000
  H       1.671141      1.287275     -0.000000
  H      -1.671141     -1.287275     -0.000000
  H      -1.671141      1.287275     -0.000000
6
Coordinates from ORCA-job C2H4_Freq-HFS E -67.087429072404
  C       0.886044      0.000000      0.000000
  C      -0.886044      0.000000     -0.000000
  H       1.677479     -1.298650     -0.000000
  H       1.677479      1.298650     -0.000000
  H      -1.677479     -1.298650     -0.000000
  H      -1.677479      1.298650      0.000000
6
Coordinates from ORCA-job C2H4_Freq-HFS E -67.087459654947
  C       0.884884      0.000000      0.000000
  C      -0.884884      0.000000     -0.000000
  H       1.677363     -1.302804     -0.000000
  H       1.677363      1.302804     -0.000000
  H      -1.677363     -1.302804     -0.000000
  H      -1.677363      1.302804      0.000000
6
Coordinates from ORCA-job C2H4_Freq-HFS E -67.087486323291
  C       0.881647      0.000000      0.000000
  C      -0.881647      0.000000     -0.000000
  H       1.674530     -1.306139     -0.000000
  H       1.674530      1.306139     -0.000000
  H      -1.674530     -1.306139      0.000000
  H      -1.674530      1.306139      0.000000
6
Coordinates from ORCA-job C2H4_Freq-HFS E -67.087492707486
  C       0.879621      0.000000      0.000000
  C      -0.879621      0.000000     -0.000000
  H       1.672381     -1.305831     -0.000000
  H       1.672381      1.305831     -0.000000
  H      -1.672381     -1.305831      0.000000
  H      -1.672381      1.305831      0.000000
6
Coordinates from ORCA-job C2H4_Freq-HFS E -67.087493793256
  C       0.879035      0.000000      0.000000
  C      -0.879035      0.000000     -0.000000
  H       1.671949     -1.304843     -0.000000
  H       1.671949      1.304843     -0.000000
  H      -1.671949     -1.304843      0.000000
  H      -1.671949      1.304843      0.000000
6
Coordinates from ORCA-job C2H4_Freq-HFS E -67.087494108331
  C       0.878928      0.000000      0.000000
  C      -0.878928     -0.000000     -0.000000
  H       1.672253     -1.304258     -0.000000
  H       1.672253      1.304258     -0.000000
  H      -1.672253     -1.304258      0.000000
  H      -1.672253      1.304258      0.000000
6
Coordinates from ORCA-job C2H4_Freq-HFS E -67.087494357311
  C       0.878886      0.000000      0.000000
  C      -0.878886     -0.000000     -0.000000
  H       1.672960     -1.303758     -0.000000
  H       1.672960      1.303758     -0.000000
  H      -1.672960     -1.303758      0.000000
  H      -1.672960      1.303758      0.000000
6
Coordinates from ORCA-job C2H4_Freq-HFS E -67.087494433478
  C       0.878895      0.000000      0.000000
  C      -0.878895     -0.000000     -0.000000
  H       1.673456     -1.303677     -0.000000
  H       1.673456      1.303677     -0.000000
  H      -1.673456     -1.303677      0.000000
  H      -1.673456      1.303677      0.000000
6
Coordinates from ORCA-job C2H4_Freq-HFS E -67.087494441957
  C       0.878875      0.000000      0.000000
  C      -0.878875     -0.000000     -0.000000
  H       1.673574     -1.303728     -0.000000
  H       1.673574      1.303728     -0.000000
  H      -1.673574     -1.303728      0.000000
  H      -1.673574      1.303728      0.000000
6
Coordinates from ORCA-job C2H4_Freq-HFS E -67.087494443877
  C       0.878910      0.000000      0.000000
  C      -0.878910     -0.000000     -0.000000
  H       1.673591     -1.303791     -0.000000
  H       1.673591      1.303791     -0.000000
  H      -1.673591     -1.303791      0.000000
  H      -1.673591      1.303791      0.000000
6
Coordinates from ORCA-job C2H4_Freq-HFS E -67.087494444102
  C       0.878909      0.000000      0.000000
  C      -0.878909     -0.000000     -0.000000
  H       1.673565     -1.303781     -0.000000
  H       1.673565      1.303781     -0.000000
  H      -1.673565     -1.303781      0.000000
  H      -1.673565      1.303781      0.000000
