6
Coordinates from ORCA-job C2H4_Freq-HFS E -67.087494444102
  C           0.87890907120869      0.00000000000449      0.00000000000002
  C          -0.87890906988259     -0.00000000000214     -0.00000000000001
  H           1.67356511645424     -1.30378134075816     -0.00000000000000
  H           1.67356511647544      1.30378134076652     -0.00000000000001
  H          -1.67356511713184     -1.30378134157959      0.00000000000000
  H          -1.67356511712394      1.30378134156888      0.00000000000000
