3
Coordinates from ORCA-job .\Agua_TDDFT-LDA E -75.635499639013
  O       0.000000      0.000000      0.117790
  H       0.000000      0.755450     -0.471160
  H       0.000000     -0.755450     -0.471160
3
Coordinates from ORCA-job .\Agua_TDDFT-LDA E -75.651607973955
  O       0.000000      0.000000      0.151060
  H       0.000000      0.820942     -0.487795
  H       0.000000     -0.820942     -0.487795
3
Coordinates from ORCA-job .\Agua_TDDFT-LDA E -75.653864307642
  O       0.000000     -0.000000      0.164097
  H       0.000000      0.851729     -0.494313
  H       0.000000     -0.851729     -0.494313
3
Coordinates from ORCA-job .\Agua_TDDFT-LDA E -75.654258651300
  O       0.000000      0.000000      0.168909
  H       0.000000      0.873237     -0.496720
  H       0.000000     -0.873237     -0.496720
3
Coordinates from ORCA-job .\Agua_TDDFT-LDA E -75.654285986736
  O       0.000000     -0.000000      0.167437
  H       0.000000      0.883310     -0.495983
  H       0.000000     -0.883310     -0.495983
3
Coordinates from ORCA-job .\Agua_TDDFT-LDA E -75.654302826245
  O       0.000000      0.000000      0.162708
  H       0.000000      0.893822     -0.493619
  H       0.000000     -0.893822     -0.493619
3
Coordinates from ORCA-job .\Agua_TDDFT-LDA E -75.654323694111
  O       0.000000      0.000000      0.152345
  H       0.000000      0.909013     -0.488438
  H       0.000000     -0.909013     -0.488438
3
Coordinates from ORCA-job .\Agua_TDDFT-LDA E -75.654332516506
  O       0.000000     -0.000000      0.142565
  H       0.000000      0.919268     -0.483548
  H       0.000000     -0.919268     -0.483548
3
Coordinates from ORCA-job .\Agua_TDDFT-LDA E -75.654335372577
  O       0.000000     -0.000000      0.139450
  H       0.000000      0.921139     -0.481990
  H       0.000000     -0.921139     -0.481990
3
Coordinates from ORCA-job .\Agua_TDDFT-LDA E -75.654338132734
  O       0.000000      0.000000      0.139551
  H       0.000000      0.920347     -0.482041
  H       0.000000     -0.920347     -0.482041
3
Coordinates from ORCA-job .\Agua_TDDFT-LDA E -75.654340154661
  O       0.000000      0.000000      0.139941
  H       0.000000      0.919611     -0.482236
  H       0.000000     -0.919611     -0.482236
3
Coordinates from ORCA-job .\Agua_TDDFT-LDA E -75.654336216089
  O       0.000000      0.000000      0.140007
  H       0.000000      0.919546     -0.482268
  H       0.000000     -0.919546     -0.482268
3
Coordinates from ORCA-job .\Agua_TDDFT-LDA E -75.654348488763
  O       0.000000      0.000000      0.140008
  H       0.000000      0.919557     -0.482269
  H       0.000000     -0.919557     -0.482269
3
Coordinates from ORCA-job .\Agua_TDDFT-LDA E -75.654337879442
  O       0.000000      0.000000      0.140017
  H       0.000000      0.919542     -0.482273
  H       0.000000     -0.919542     -0.482273
