2
Coordinates from ORCA-job HCl_Freq-LDA E -459.319935596114
  Cl      0.000000      0.000000      0.074144
  H       0.000000      0.000000     -1.208014
2
Coordinates from ORCA-job HCl_Freq-LDA E -459.319970996355
  Cl      0.000000      0.000000      0.077367
  H       0.000000      0.000000     -1.211237
2
Coordinates from ORCA-job HCl_Freq-LDA E -459.319972522009
  Cl      0.000000      0.000000      0.078177
  H       0.000000      0.000000     -1.212047
2
Coordinates from ORCA-job HCl_Freq-LDA E -459.319972523191
  Cl      0.000000      0.000000      0.078196
  H       0.000000      0.000000     -1.212066
2
Coordinates from ORCA-job HCl_Freq-LDA E -459.319972523179
  Cl      0.000000      0.000000      0.078195
  H       0.000000      0.000000     -1.212065
