3
Coordinates from ORCA-job .\Agua_Freq-LDA E -75.904769965006
  O       0.000000      0.000000      0.117790
  H       0.000000      0.755450     -0.471160
  H       0.000000     -0.755450     -0.471160
3
Coordinates from ORCA-job .\Agua_Freq-LDA E -75.905064208531
  O       0.000000     -0.000000      0.120496
  H       0.000000      0.768106     -0.472513
  H       0.000000     -0.768106     -0.472513
3
Coordinates from ORCA-job .\Agua_Freq-LDA E -75.905064585553
  O       0.000000      0.000000      0.120206
  H       0.000000      0.767984     -0.472368
  H       0.000000     -0.767984     -0.472368
3
Coordinates from ORCA-job .\Agua_Freq-LDA E -75.905064651886
  O       0.000000      0.000000      0.120006
  H       0.000000      0.768100     -0.472268
  H       0.000000     -0.768100     -0.472268
3
Coordinates from ORCA-job .\Agua_Freq-LDA E -75.905064665268
  O       0.000000     -0.000000      0.119905
  H       0.000000      0.768217     -0.472218
  H       0.000000     -0.768217     -0.472218
3
Coordinates from ORCA-job .\Agua_Freq-LDA E -75.905064665884
  O       0.000000      0.000000      0.119908
  H       0.000000      0.768226     -0.472219
  H       0.000000     -0.768226     -0.472219
3
Coordinates from ORCA-job .\Agua_Freq-LDA E -75.905064665891
  O       0.000000     -0.000000      0.119910
  H       0.000000      0.768229     -0.472220
  H       0.000000     -0.768229     -0.472220
