12
Coordinates from ORCA-job C6H6_Freq-LDA E -230.182949057628
  C      -1.198802      0.692129      0.000000
  C      -1.198802     -0.692129      0.000000
  C       0.000000     -1.384254      0.000000
  C       1.198802     -0.692129      0.000000
  C       1.198802      0.692129      0.000000
  C       0.000000      1.384254      0.000000
  H      -2.133155     -1.231578      0.000000
  H       0.000000     -2.463152      0.000000
  H       2.133155     -1.231578      0.000000
  H       2.133155      1.231578      0.000000
  H       0.000000      2.463152      0.000000
  H      -2.133155      1.231578      0.000000
12
Coordinates from ORCA-job C6H6_Freq-LDA E -230.183777632985
  C      -1.199939      0.692815     -0.000000
  C      -1.199939     -0.692815     -0.000000
  C       0.000000     -1.385629     -0.000000
  C       1.199939     -0.692815     -0.000000
  C       1.199939      0.692815     -0.000000
  C      -0.000000      1.385629     -0.000000
  H      -2.146358     -1.239236      0.000000
  H      -0.000000     -2.478455      0.000000
  H       2.146358     -1.239236      0.000000
  H       2.146358      1.239236      0.000000
  H      -0.000000      2.478455      0.000000
  H      -2.146358      1.239236      0.000000
12
Coordinates from ORCA-job C6H6_Freq-LDA E -230.183780144680
  C      -1.199977      0.692845     -0.000000
  C      -1.199977     -0.692845      0.000000
  C       0.000000     -1.385696      0.000000
  C       1.199977     -0.692845     -0.000000
  C       1.199977      0.692845     -0.000000
  C      -0.000000      1.385696     -0.000000
  H      -2.147082     -1.239662     -0.000000
  H      -0.000000     -2.479311      0.000000
  H       2.147082     -1.239662      0.000000
  H       2.147082      1.239662      0.000000
  H       0.000000      2.479311      0.000000
  H      -2.147082      1.239662      0.000000
12
Coordinates from ORCA-job C6H6_Freq-LDA E -230.183780149641
  C      -1.199971      0.692843     -0.000000
  C      -1.199971     -0.692843      0.000000
  C      -0.000000     -1.385697     -0.000000
  C       1.199971     -0.692843     -0.000000
  C       1.199971      0.692843     -0.000000
  C      -0.000000      1.385697     -0.000000
  H      -2.147107     -1.239676      0.000000
  H      -0.000000     -2.479346      0.000000
  H       2.147107     -1.239676      0.000000
  H       2.147107      1.239676      0.000000
  H       0.000000      2.479346      0.000000
  H      -2.147107      1.239676     -0.000000
12
Coordinates from ORCA-job C6H6_Freq-LDA E -230.183780149726
  C      -1.199968      0.692842     -0.000000
  C      -1.199968     -0.692842      0.000000
  C       0.000000     -1.385697      0.000000
  C       1.199968     -0.692842     -0.000000
  C       1.199968      0.692842     -0.000000
  C      -0.000000      1.385697     -0.000000
  H      -2.147105     -1.239674      0.000000
  H      -0.000000     -2.479347      0.000000
  H       2.147105     -1.239674      0.000000
  H       2.147105      1.239674      0.000000
  H       0.000000      2.479347      0.000000
  H      -2.147105      1.239674      0.000000
