2
Coordinates from ORCA-job HCl_Opt_Geom-HFS E -432.794576367803
  Cl      0.000000      0.000000      0.074144
  H       0.000000      0.000000     -1.208014
2
Coordinates from ORCA-job HCl_Opt_Geom-HFS E -432.830579162211
  Cl      0.000000      0.000000      0.153521
  H       0.000000      0.000000     -1.287391
2
Coordinates from ORCA-job HCl_Opt_Geom-HFS E -432.842582315484
  Cl      0.000000      0.000000      0.211599
  H       0.000000      0.000000     -1.345469
2
Coordinates from ORCA-job HCl_Opt_Geom-HFS E -432.847281018308
  Cl      0.000000      0.000000      0.262618
  H       0.000000      0.000000     -1.396488
2
Coordinates from ORCA-job HCl_Opt_Geom-HFS E -432.848314984276
  Cl      0.000000      0.000000      0.293780
  H       0.000000      0.000000     -1.427650
2
Coordinates from ORCA-job HCl_Opt_Geom-HFS E -432.848428501675
  Cl      0.000000      0.000000      0.306619
  H       0.000000      0.000000     -1.440489
2
Coordinates from ORCA-job HCl_Opt_Geom-HFS E -432.848431939611
  Cl      0.000000      0.000000      0.309161
  H       0.000000      0.000000     -1.443031
2
Coordinates from ORCA-job HCl_Opt_Geom-HFS E -432.848431953191
  Cl      0.000000      0.000000      0.309339
  H       0.000000      0.000000     -1.443209
2
Coordinates from ORCA-job HCl_Opt_Geom-HFS E -432.848431954209
  Cl      0.000000      0.000000      0.309323
  H       0.000000      0.000000     -1.443193
2
Coordinates from ORCA-job HCl_Opt_Geom-HFS E -432.848431954386
  Cl      0.000000      0.000000      0.309331
  H       0.000000      0.000000     -1.443201
2
Coordinates from ORCA-job HCl_Opt_Geom-HFS E -432.848431954384
  Cl      0.000000      0.000000      0.309339
  H       0.000000      0.000000     -1.443209
