4
Coordinates from ORCA-job NH3_TDDFT-PBE0 E -56.281997298568
  N          -0.00000000323587     -0.00054083505042     -0.17040918130422
  H           0.00000001607828      1.06602187935173     -0.17243370013876
  H          -0.91824748244158     -0.53274103280226     -0.16942256697513
  H           0.91824746959916     -0.53274101149905     -0.16942255158188
