4
Coordinates from ORCA-job NH3_TDDFT-PBE0 E -56.259752883877
  N       0.000000      0.000000      0.113615
  H       0.000000      0.937991     -0.265101
  H      -0.812324     -0.468996     -0.265101
  H       0.812324     -0.468996     -0.265101
4
Coordinates from ORCA-job NH3_TDDFT-PBE0 E -56.273209703927
  N       0.000000     -0.003542      0.054746
  H      -0.000000      0.999473     -0.246432
  H      -0.872380     -0.497966     -0.245001
  H       0.872380     -0.497966     -0.245001
4
Coordinates from ORCA-job NH3_TDDFT-PBE0 E -56.279179070197
  N       0.000000     -0.005908     -0.018008
  H      -0.000000      1.037530     -0.222919
  H      -0.909649     -0.515812     -0.220380
  H       0.909649     -0.515812     -0.220380
4
Coordinates from ORCA-job NH3_TDDFT-PBE0 E -56.281145696745
  N       0.000000     -0.005050     -0.079137
  H       0.000000      1.056173     -0.202772
  H      -0.924341     -0.525562     -0.199890
  H       0.924341     -0.525562     -0.199890
4
Coordinates from ORCA-job NH3_TDDFT-PBE0 E -56.281759010288
  N      -0.000000     -0.003132     -0.122289
  H       0.000000      1.062237     -0.188436
  H      -0.925368     -0.529553     -0.185482
  H       0.925368     -0.529553     -0.185482
4
Coordinates from ORCA-job NH3_TDDFT-PBE0 E -56.281974877261
  N      -0.000000     -0.001441     -0.155654
  H       0.000000      1.064087     -0.177338
  H      -0.921794     -0.531324     -0.174348
  H       0.921794     -0.531324     -0.174348
4
Coordinates from ORCA-job NH3_TDDFT-PBE0 E -56.281998833307
  N      -0.000000     -0.000820     -0.169403
  H       0.000000      1.064698     -0.172766
  H      -0.919383     -0.531940     -0.169760
  H       0.919383     -0.531940     -0.169760
4
Coordinates from ORCA-job NH3_TDDFT-PBE0 E -56.281999465992
  N      -0.000000     -0.000789     -0.170760
  H       0.000000      1.065058     -0.172315
  H      -0.918971     -0.532135     -0.169306
  H       0.918971     -0.532135     -0.169306
4
Coordinates from ORCA-job NH3_TDDFT-PBE0 E -56.281991738120
  N      -0.000000     -0.000774     -0.171002
  H       0.000000      1.065429     -0.172235
  H      -0.918703     -0.532328     -0.169225
  H       0.918703     -0.532328     -0.169225
4
Coordinates from ORCA-job NH3_TDDFT-PBE0 E -56.281996964786
  N      -0.000000     -0.000717     -0.170797
  H       0.000000      1.065874     -0.172304
  H      -0.918419     -0.532579     -0.169294
  H       0.918419     -0.532579     -0.169294
4
Coordinates from ORCA-job NH3_TDDFT-PBE0 E -56.281992135981
  N       0.000000     -0.000648     -0.170540
  H       0.000000      1.066007     -0.172390
  H      -0.918310     -0.532680     -0.169379
  H       0.918310     -0.532680     -0.169379
4
Coordinates from ORCA-job NH3_TDDFT-PBE0 E -56.281995568193
  N      -0.000000     -0.000572     -0.170376
  H       0.000000      1.066045     -0.172445
  H      -0.918255     -0.532737     -0.169434
  H       0.918255     -0.532737     -0.169434
4
Coordinates from ORCA-job NH3_TDDFT-PBE0 E -56.281996377412
  N      -0.000000     -0.000545     -0.170382
  H       0.000000      1.066028     -0.172443
  H      -0.918248     -0.532742     -0.169432
  H       0.918248     -0.532742     -0.169432
4
Coordinates from ORCA-job NH3_TDDFT-PBE0 E -56.281997186398
  N      -0.000000     -0.000541     -0.170404
  H       0.000000      1.066023     -0.172436
  H      -0.918247     -0.532742     -0.169424
  H       0.918247     -0.532741     -0.169424
4
Coordinates from ORCA-job NH3_TDDFT-PBE0 E -56.281997298568
  N      -0.000000     -0.000541     -0.170409
  H       0.000000      1.066022     -0.172434
  H      -0.918247     -0.532741     -0.169423
  H       0.918247     -0.532741     -0.169423
