! LDA def2-TZVPP Opt TightOpt VeryTightSCF


! Freq
! NumFreq

%scf
   MaxIter 400          # Máximo de iteraciones permitidas para el SCF
end

%geom
   TolRMSD 1.0e-5
   TolMAXD 1.0e-4
   TolRMSG 1.0e-5
   TolMAXG 1.0e-4
end


%tddft
  nroots 10
end

%pal
   nprocs 1
end


%MaxCore 4000            # Memoria máxima por núcleo (en MB)

* xyz 0 1
Cl     0.000000    0.000000    0.074144
H      0.000000    0.000000   -1.208014
*
