4
Coordinates from ORCA-job NH3_TDDFT-B3LYP E -56.306904281649
  N       0.000000      0.000000      0.113615
  H       0.000000      0.937991     -0.265101
  H      -0.812324     -0.468996     -0.265101
  H       0.812324     -0.468996     -0.265101
4
Coordinates from ORCA-job NH3_TDDFT-B3LYP E -56.320178248655
  N       0.000000     -0.003547      0.054199
  H      -0.000000      0.998922     -0.246250
  H      -0.871306     -0.497688     -0.244818
  H       0.871306     -0.497689     -0.244818
4
Coordinates from ORCA-job NH3_TDDFT-B3LYP E -56.325934984502
  N       0.000000     -0.005652     -0.018564
  H      -0.000000      1.036782     -0.222683
  H      -0.907844     -0.515565     -0.220221
  H       0.907844     -0.515565     -0.220221
4
Coordinates from ORCA-job NH3_TDDFT-B3LYP E -56.327632334072
  N       0.000000     -0.004663     -0.073718
  H       0.000000      1.053489     -0.204464
  H      -0.920022     -0.524413     -0.201753
  H       0.920022     -0.524413     -0.201753
4
Coordinates from ORCA-job NH3_TDDFT-B3LYP E -56.328195445307
  N      -0.000000     -0.002831     -0.114638
  H       0.000000      1.059426     -0.190847
  H      -0.920691     -0.528298     -0.188102
  H       0.920691     -0.528298     -0.188102
4
Coordinates from ORCA-job NH3_TDDFT-B3LYP E -56.328394292239
  N      -0.000000     -0.001148     -0.147257
  H       0.000000      1.061440     -0.179977
  H      -0.917459     -0.530147     -0.177227
  H       0.917459     -0.530147     -0.177227
4
Coordinates from ORCA-job NH3_TDDFT-B3LYP E -56.328416599952
  N      -0.000000     -0.000365     -0.165433
  H       0.000000      1.062392     -0.173923
  H      -0.915296     -0.531014     -0.171166
  H       0.915296     -0.531014     -0.171166
4
Coordinates from ORCA-job NH3_TDDFT-B3LYP E -56.328424310806
  N      -0.000000     -0.000303     -0.169650
  H       0.000000      1.062868     -0.172519
  H      -0.915132     -0.531283     -0.169760
  H       0.915132     -0.531283     -0.169760
4
Coordinates from ORCA-job NH3_TDDFT-B3LYP E -56.328424547877
  N      -0.000000     -0.000385     -0.169989
  H       0.000000      1.062991     -0.172406
  H      -0.915280     -0.531303     -0.169646
  H       0.915280     -0.531303     -0.169646
4
Coordinates from ORCA-job NH3_TDDFT-B3LYP E -56.328442597769
  N      -0.000000     -0.000484     -0.170077
  H       0.000000      1.063025     -0.172377
  H      -0.915437     -0.531271     -0.169617
  H       0.915437     -0.531271     -0.169617
4
Coordinates from ORCA-job NH3_TDDFT-B3LYP E -56.328423118902
  N      -0.000000     -0.000523     -0.170080
  H       0.000000      1.062974     -0.172376
  H      -0.915481     -0.531226     -0.169616
  H       0.915481     -0.531226     -0.169616
4
Coordinates from ORCA-job NH3_TDDFT-B3LYP E -56.328424025764
  N       0.000000     -0.000584     -0.170082
  H      -0.000000      1.062876     -0.172375
  H      -0.915570     -0.531146     -0.169616
  H       0.915570     -0.531146     -0.169616
4
Coordinates from ORCA-job NH3_TDDFT-B3LYP E -56.328422704235
  N       0.000000     -0.000583     -0.170096
  H      -0.000000      1.062837     -0.172370
  H      -0.915570     -0.531128     -0.169611
  H       0.915570     -0.531128     -0.169611
4
Coordinates from ORCA-job NH3_TDDFT-B3LYP E -56.328424132499
  N       0.000000     -0.000578     -0.170105
  H      -0.000000      1.062830     -0.172367
  H      -0.915567     -0.531127     -0.169608
  H       0.915567     -0.531127     -0.169608
4
Coordinates from ORCA-job NH3_TDDFT-B3LYP E -56.328424888977
  N       0.000000     -0.000576     -0.170107
  H      -0.000000      1.062828     -0.172366
  H      -0.915567     -0.531126     -0.169607
  H       0.915567     -0.531126     -0.169607
