2
Coordinates from ORCA-job HCl_TDDFT-HFS E -432.634014169822
  Cl      0.000000      0.000000      0.074144
  H       0.000000      0.000000     -1.208014
2
Coordinates from ORCA-job HCl_TDDFT-HFS E -432.685641556778
  Cl      0.000000      0.000000      0.153521
  H       0.000000      0.000000     -1.287391
2
Coordinates from ORCA-job HCl_TDDFT-HFS E -432.719048175943
  Cl      0.000000      0.000000      0.232897
  H       0.000000      0.000000     -1.366767
2
Coordinates from ORCA-job HCl_TDDFT-HFS E -432.742245689045
  Cl      0.000000      0.000000      0.312274
  H       0.000000      0.000000     -1.446144
2
Coordinates from ORCA-job HCl_TDDFT-HFS E -432.758546093278
  Cl      0.000000      0.000000      0.391650
  H       0.000000      0.000000     -1.525520
2
Coordinates from ORCA-job HCl_TDDFT-HFS E -432.769777340416
  Cl      0.000000      0.000000      0.471027
  H       0.000000      0.000000     -1.604897
2
Coordinates from ORCA-job HCl_TDDFT-HFS E -432.777239414216
  Cl      0.000000      0.000000      0.550403
  H       0.000000      0.000000     -1.684273
2
Coordinates from ORCA-job HCl_TDDFT-HFS E -432.781924770269
  Cl      0.000000      0.000000      0.629780
  H       0.000000      0.000000     -1.763650
2
Coordinates from ORCA-job HCl_TDDFT-HFS E -432.784633187162
  Cl      0.000000      0.000000      0.709157
  H       0.000000      0.000000     -1.843027
2
Coordinates from ORCA-job HCl_TDDFT-HFS E -432.785980818438
  Cl      0.000000      0.000000      0.788533
  H       0.000000      0.000000     -1.922403
2
Coordinates from ORCA-job HCl_TDDFT-HFS E -432.786417292469
  Cl      0.000000      0.000000      0.858826
  H       0.000000      0.000000     -1.992696
2
Coordinates from ORCA-job HCl_TDDFT-HFS E -432.786435629108
  Cl      0.000000      0.000000      0.900180
  H       0.000000      0.000000     -2.034050
2
Coordinates from ORCA-job HCl_TDDFT-HFS E -432.786410763038
  Cl      0.000000      0.000000      0.917182
  H       0.000000      0.000000     -2.051052
2
Coordinates from ORCA-job HCl_TDDFT-HFS E -432.786407822336
  Cl      0.000000      0.000000      0.920288
  H       0.000000      0.000000     -2.054158
2
Coordinates from ORCA-job HCl_TDDFT-HFS E -432.786412673023
  Cl      0.000000      0.000000      0.920507
  H       0.000000      0.000000     -2.054377
2
Coordinates from ORCA-job HCl_TDDFT-HFS E -432.786398509206
  Cl      0.000000      0.000000      0.920455
  H       0.000000      0.000000     -2.054325
2
Coordinates from ORCA-job HCl_TDDFT-HFS E -432.786405440543
  Cl      0.000000      0.000000      0.920441
  H       0.000000      0.000000     -2.054311
2
Coordinates from ORCA-job HCl_TDDFT-HFS E -432.786402248298
  Cl      0.000000      0.000000      0.920444
  H       0.000000      0.000000     -2.054314
