6
Coordinates from ORCA-job C2H4_Opt_Geom-PBE0 E -78.513687700020
  C           0.66152218967212      0.00000001496263     -0.00000000888258
  C          -0.66152217095117      0.00000000847844     -0.00000000090566
  H           1.23044068060795     -0.92265820978171      0.00000002084272
  H           1.23044071988942      0.92265820476152     -0.00000001378296
  H          -1.23044070111734     -0.92265822144566     -0.00000001594860
  H          -1.23044071810097      0.92265820302479      0.00000001867708
