2
Coordinates from ORCA-job HCl_TDDFT-LDA E -459.040769782513
  Cl      0.000000      0.000000      0.074144
  H       0.000000      0.000000     -1.208014
2
Coordinates from ORCA-job HCl_TDDFT-LDA E -459.079829201235
  Cl      0.000000      0.000000      0.153521
  H       0.000000      0.000000     -1.287391
2
Coordinates from ORCA-job HCl_TDDFT-LDA E -459.104001609536
  Cl      0.000000      0.000000      0.232897
  H       0.000000      0.000000     -1.366767
2
Coordinates from ORCA-job HCl_TDDFT-LDA E -459.118228631982
  Cl      0.000000      0.000000      0.312274
  H       0.000000      0.000000     -1.446144
2
Coordinates from ORCA-job HCl_TDDFT-LDA E -459.125610459742
  Cl      0.000000      0.000000      0.391650
  H       0.000000      0.000000     -1.525520
2
Coordinates from ORCA-job HCl_TDDFT-LDA E -459.128166153947
  Cl      0.000000      0.000000      0.455455
  H       0.000000      0.000000     -1.589325
2
Coordinates from ORCA-job HCl_TDDFT-LDA E -459.128665506900
  Cl      0.000000      0.000000      0.491522
  H       0.000000      0.000000     -1.625392
2
Coordinates from ORCA-job HCl_TDDFT-LDA E -459.128713504806
  Cl      0.000000      0.000000      0.505156
  H       0.000000      0.000000     -1.639026
2
Coordinates from ORCA-job HCl_TDDFT-LDA E -459.128716891163
  Cl      0.000000      0.000000      0.507575
  H       0.000000      0.000000     -1.641445
2
Coordinates from ORCA-job HCl_TDDFT-LDA E -459.128727877644
  Cl      0.000000      0.000000      0.507766
  H       0.000000      0.000000     -1.641636
2
Coordinates from ORCA-job HCl_TDDFT-LDA E -459.128704589622
  Cl      0.000000      0.000000      0.507713
  H       0.000000      0.000000     -1.641583
2
Coordinates from ORCA-job HCl_TDDFT-LDA E -459.128714973772
  Cl      0.000000      0.000000      0.507710
  H       0.000000      0.000000     -1.641580
2
Coordinates from ORCA-job HCl_TDDFT-LDA E -459.128714992775
  Cl      0.000000      0.000000      0.507709
  H       0.000000      0.000000     -1.641579
