2
Coordinates from ORCA-job HCl_TDDFT-B3LYP E -460.486022568947
  Cl      0.000000      0.000000      0.074144
  H       0.000000      0.000000     -1.208014
2
Coordinates from ORCA-job HCl_TDDFT-B3LYP E -460.523811714788
  Cl      0.000000      0.000000      0.153521
  H       0.000000      0.000000     -1.287391
2
Coordinates from ORCA-job HCl_TDDFT-B3LYP E -460.547006984936
  Cl      0.000000      0.000000      0.232897
  H       0.000000      0.000000     -1.366767
2
Coordinates from ORCA-job HCl_TDDFT-B3LYP E -460.560404171537
  Cl      0.000000      0.000000      0.312274
  H       0.000000      0.000000     -1.446144
2
Coordinates from ORCA-job HCl_TDDFT-B3LYP E -460.567070336009
  Cl      0.000000      0.000000      0.391650
  H       0.000000      0.000000     -1.525520
2
Coordinates from ORCA-job HCl_TDDFT-B3LYP E -460.568933790124
  Cl      0.000000      0.000000      0.446596
  H       0.000000      0.000000     -1.580466
2
Coordinates from ORCA-job HCl_TDDFT-B3LYP E -460.569246892835
  Cl      0.000000      0.000000      0.474581
  H       0.000000      0.000000     -1.608451
2
Coordinates from ORCA-job HCl_TDDFT-B3LYP E -460.569278835859
  Cl      0.000000      0.000000      0.482955
  H       0.000000      0.000000     -1.616825
2
Coordinates from ORCA-job HCl_TDDFT-B3LYP E -460.569281709954
  Cl      0.000000      0.000000      0.484067
  H       0.000000      0.000000     -1.617937
2
Coordinates from ORCA-job HCl_TDDFT-B3LYP E -460.569280769671
  Cl      0.000000      0.000000      0.484088
  H       0.000000      0.000000     -1.617958
2
Coordinates from ORCA-job HCl_TDDFT-B3LYP E -460.569280267411
  Cl      0.000000      0.000000      0.484092
  H       0.000000      0.000000     -1.617962
