4
Coordinates from ORCA-job NH3_Opt_Geom-PBE0 E -56.515921015004
  N          -0.00000000093417      0.00000906118855      0.11390105054255
  H           0.00000000011670      0.93805745370625     -0.26519391279182
  H          -0.81237589999577     -0.46903375727879     -0.26519756865734
  H           0.81237590081323     -0.46903375761600     -0.26519756909339
