4
Coordinates from ORCA-job NH3_Opt_Geom-HFS E -49.075954864488
  N          -0.00000000000008      0.00055037505895      0.46940812831181
  H           0.00000000000004      1.28885259267064     -0.38479742702563
  H          -1.11634210191103     -0.64470198386480     -0.38314935064310
  H           1.11634210191106     -0.64470198386478     -0.38314935064308
