4
Coordinates from ORCA-job NH3_Opt_Geom-B3LYP E -56.552279504215
  N       0.000000      0.000000      0.113615
  H       0.000000      0.937991     -0.265101
  H      -0.812324     -0.468996     -0.265101
  H       0.812324     -0.468996     -0.265101
4
Coordinates from ORCA-job NH3_Opt_Geom-B3LYP E -56.552289056120
  N      -0.000000      0.000001      0.112886
  H       0.000000      0.940430     -0.264858
  H      -0.814448     -0.470216     -0.264858
  H       0.814448     -0.470216     -0.264858
4
Coordinates from ORCA-job NH3_Opt_Geom-B3LYP E -56.552289389568
  N      -0.000000      0.000003      0.112501
  H       0.000000      0.940441     -0.264729
  H      -0.814451     -0.470223     -0.264730
  H       0.814451     -0.470223     -0.264730
4
Coordinates from ORCA-job NH3_Opt_Geom-B3LYP E -56.552289626460
  N      -0.000000      0.000008      0.111804
  H       0.000000      0.940647     -0.264495
  H      -0.814619     -0.470328     -0.264498
  H       0.814619     -0.470328     -0.264498
4
Coordinates from ORCA-job NH3_Opt_Geom-B3LYP E -56.552289630733
  N      -0.000000      0.000009      0.111692
  H       0.000000      0.940701     -0.264457
  H      -0.814665     -0.470356     -0.264461
  H       0.814665     -0.470356     -0.264461
4
Coordinates from ORCA-job NH3_Opt_Geom-B3LYP E -56.552289630490
  N      -0.000000      0.000009      0.111688
  H       0.000000      0.940707     -0.264456
  H      -0.814669     -0.470359     -0.264460
  H       0.814669     -0.470359     -0.264460
