4
Coordinates from ORCA-job NH3_Opt_Geom-B3LYP E -56.552289630490
  N          -0.00000000109332      0.00000944575802      0.11168831771293
  H           0.00000000220366      0.94070699194698     -0.26445624090831
  H          -0.81466938631893     -0.47035872044536     -0.26446003814134
  H           0.81466938520859     -0.47035871725964     -0.26446003866328
